1a30_ligand_4
 OpenBabel06092316213D

 49 48  0  0  1  0  0  0  0  0999 V2000
    4.1644    1.1983   21.4659 N   0  3  0  0  0  0  0  0  0  0  0  0
    3.8193    2.6409   21.5823 C   0  0  2  0  0  0  0  0  0  0  0  0
    5.0893    3.4833   21.6903 C   0  0  0  0  0  0  0  0  0  0  0  0
    5.2894    4.2113   22.6688 O   0  0  0  0  0  0  0  0  0  0  0  0
    2.9017    2.8799   22.7840 C   0  0  0  0  0  0  0  0  0  0  0  0
    1.7392    1.9111   22.8742 C   0  0  0  0  0  0  0  0  0  0  0  0
    1.1094    1.8651   24.2526 C   0  0  0  0  0  0  0  0  0  0  0  0
    0.5124    2.8821   24.6757 O   0  5  0  0  0  0  0  0  0  0  0  0
    1.2015    0.8010   24.9056 O   0  0  0  0  0  0  0  0  0  0  0  0
    5.9671    3.3360   20.7055 N   0  0  0  0  0  0  0  0  0  0  0  0
    7.2264    4.0678   20.6707 C   0  0  2  0  0  0  0  0  0  0  0  0
    6.9362    5.5300   20.3819 C   0  0  0  0  0  0  0  0  0  0  0  0
    6.1701    5.8539   19.4716 O   0  0  0  0  0  0  0  0  0  0  0  0
    8.1463    3.4616   19.6139 C   0  0  0  0  0  0  0  0  0  0  0  0
    7.3986    3.1128   18.3434 C   0  0  0  0  0  0  0  0  0  0  0  0
    7.2960    1.9080   18.0467 O   0  5  0  0  0  0  0  0  0  0  0  0
    6.8781    4.0282   17.6663 O   0  0  0  0  0  0  0  0  0  0  0  0
    7.5202    6.4022   21.1986 N   0  0  0  0  0  0  0  0  0  0  0  0
    7.3144    7.8374   21.0755 C   0  0  2  0  0  0  0  0  0  0  0  0
    7.9726    8.4301   19.8430 C   0  0  0  0  0  0  0  0  0  0  0  0
    9.2203    8.4106   19.7756 O   0  5  0  0  0  0  0  0  0  0  0  0
    7.8329    8.5265   22.3299 C   0  0  0  0  0  0  0  0  0  0  0  0
    7.2300    7.8567   23.5600 C   0  0  0  0  0  0  0  0  0  0  0  0
    7.6976    8.5420   24.8080 C   0  0  0  0  0  0  0  0  0  0  0  0
    5.7135    7.8311   23.4382 C   0  0  0  0  0  0  0  0  0  0  0  0
    7.2350    8.9094   18.9576 O   0  0  0  0  0  0  0  0  0  0  0  0
    5.0863    1.0419   21.8425 H   0  0  0  0  0  0  0  0  0  0  0  0
    4.1473    0.9260   20.4955 H   0  0  0  0  0  0  0  0  0  0  0  0
    3.4936    0.6497   21.9808 H   0  0  0  0  0  0  0  0  0  0  0  0
    3.2806    2.9430   20.6721 H   0  0  0  0  0  0  0  0  0  0  0  0
    2.4970    3.9002   22.7128 H   0  0  0  0  0  0  0  0  0  0  0  0
    3.5017    2.7865   23.7013 H   0  0  0  0  0  0  0  0  0  0  0  0
    2.1022    0.9040   22.6214 H   0  0  0  0  0  0  0  0  0  0  0  0
    0.9713    2.2172   22.1484 H   0  0  0  0  0  0  0  0  0  0  0  0
    5.7568    2.7011   19.9621 H   0  0  0  0  0  0  0  0  0  0  0  0
    7.7174    3.9898   21.6519 H   0  0  0  0  0  0  0  0  0  0  0  0
    8.6006    2.5463   20.0213 H   0  0  0  0  0  0  0  0  0  0  0  0
    8.9369    4.1874   19.3728 H   0  0  0  0  0  0  0  0  0  0  0  0
    8.1207    6.0603   21.9214 H   0  0  0  0  0  0  0  0  0  0  0  0
    6.2323    8.0193   20.9983 H   0  0  0  0  0  0  0  0  0  0  0  0
    7.5451    9.5879   22.3115 H   0  0  0  0  0  0  0  0  0  0  0  0
    8.9292    8.4444   22.3675 H   0  0  0  0  0  0  0  0  0  0  0  0
    7.5837    6.8158   23.5961 H   0  0  0  0  0  0  0  0  0  0  0  0
    7.2547    8.0481   25.6854 H   0  0  0  0  0  0  0  0  0  0  0  0
    7.3869    9.5970   24.7855 H   0  0  0  0  0  0  0  0  0  0  0  0
    8.7944    8.4840   24.8694 H   0  0  0  0  0  0  0  0  0  0  0  0
    5.4291    7.3182   22.5075 H   0  0  0  0  0  0  0  0  0  0  0  0
    5.3295    8.8617   23.4209 H   0  0  0  0  0  0  0  0  0  0  0  0
    5.2855    7.2946   24.2979 H   0  0  0  0  0  0  0  0  0  0  0  0
  1 27  1  0  0  0  0
  1 28  1  0  0  0  0
  1 29  1  0  0  0  0
  2  5  1  0  0  0  0
  2  1  1  0  0  0  0
  2 30  1  6  0  0  0
  3  2  1  0  0  0  0
  3  4  2  0  0  0  0
  5  6  1  0  0  0  0
  5 31  1  0  0  0  0
  5 32  1  0  0  0  0
  6  7  1  0  0  0  0
  6 33  1  0  0  0  0
  6 34  1  0  0  0  0
  7  8  1  0  0  0  0
  7  9  2  0  0  0  0
 10  3  1  0  0  0  0
 10 35  1  0  0  0  0
 11 14  1  0  0  0  0
 11 10  1  0  0  0  0
 11 36  1  1  0  0  0
 12 11  1  0  0  0  0
 12 13  2  0  0  0  0
 12 18  1  0  0  0  0
 14 15  1  0  0  0  0
 14 37  1  0  0  0  0
 14 38  1  0  0  0  0
 15 16  1  0  0  0  0
 15 17  2  0  0  0  0
 18 19  1  0  0  0  0
 18 39  1  0  0  0  0
 19 20  1  0  0  0  0
 19 22  1  0  0  0  0
 19 40  1  6  0  0  0
 20 26  2  0  0  0  0
 20 21  1  0  0  0  0
 22 23  1  0  0  0  0
 22 41  1  0  0  0  0
 22 42  1  0  0  0  0
 23 25  1  0  0  0  0
 23 24  1  0  0  0  0
 23 43  1  0  0  0  0
 24 44  1  0  0  0  0
 24 45  1  0  0  0  0
 24 46  1  0  0  0  0
 25 47  1  0  0  0  0
 25 48  1  0  0  0  0
 25 49  1  0  0  0  0
M  CHG  4   1   1   8  -1  16  -1  21  -1
M  END
$$$$
