1bcu_ligand_95
 OpenBabel06092316213D

 27 29  0  0  0  0  0  0  0  0999 V2000
    6.0990   69.3946   63.2883 C   0  0  0  0  0  0  0  0  0  0  0  0
    5.5399   68.9447   62.1658 C   0  0  0  0  0  0  0  0  0  0  0  0
    4.1452   68.5688   62.1018 C   0  0  0  0  0  0  0  0  0  0  0  0
    3.3928   68.6747   63.2563 C   0  0  0  0  0  0  0  0  0  0  0  0
    2.8059   69.9633   67.8354 C   0  0  0  0  0  0  0  0  0  0  0  0
    3.2629   70.4891   69.0311 C   0  0  0  0  0  0  0  0  0  0  0  0
    4.6538   70.8825   69.1147 C   0  0  0  0  0  0  0  0  0  0  0  0
    5.4863   70.7494   68.0807 C   0  0  0  0  0  0  0  0  0  0  0  0
    5.8339   70.0494   65.6932 C   0  0  0  0  0  0  0  0  0  0  0  0
    3.1909   69.3094   65.5617 N   0  0  0  0  0  0  0  0  0  0  0  0
    3.9520   69.1437   64.4259 C   0  0  0  0  0  0  0  0  0  0  0  0
    5.0375   70.2051   66.8161 C   0  0  0  0  0  0  0  0  0  0  0  0
    5.3382   69.5364   64.5062 C   0  0  0  0  0  0  0  0  0  0  0  0
    3.6495   69.8185   66.7561 C   0  0  0  0  0  0  0  0  0  0  0  0
    3.5922   68.2069   60.9220 N   0  0  0  0  0  0  0  0  0  0  0  0
    2.4383   70.6536   70.0913 N   0  0  0  0  0  0  0  0  0  0  0  0
    7.1499   69.6603   63.2867 H   0  0  0  0  0  0  0  0  0  0  0  0
    6.1490   68.8579   61.2733 H   0  0  0  0  0  0  0  0  0  0  0  0
    2.3483   68.3849   63.2420 H   0  0  0  0  0  0  0  0  0  0  0  0
    1.7687   69.6607   67.7468 H   0  0  0  0  0  0  0  0  0  0  0  0
    5.0293   71.2967   70.0434 H   0  0  0  0  0  0  0  0  0  0  0  0
    6.5205   71.0551   68.1895 H   0  0  0  0  0  0  0  0  0  0  0  0
    6.8774   70.3382   65.7454 H   0  0  0  0  0  0  0  0  0  0  0  0
    4.1647   68.1987   60.0658 H   0  0  0  0  0  0  0  0  0  0  0  0
    2.5984   67.9396   60.8795 H   0  0  0  0  0  0  0  0  0  0  0  0
    1.4466   70.3853   70.0189 H   0  0  0  0  0  0  0  0  0  0  0  0
    2.8025   71.0472   70.9707 H   0  0  0  0  0  0  0  0  0  0  0  0
  1 13  2  0  0  0  0
  1  2  1  0  0  0  0
  1 17  1  0  0  0  0
  2  3  2  0  0  0  0
  2 18  1  0  0  0  0
  3 15  1  0  0  0  0
  3  4  1  0  0  0  0
  4 11  2  0  0  0  0
  4 19  1  0  0  0  0
  5  6  2  0  0  0  0
  5 20  1  0  0  0  0
  6 16  1  0  0  0  0
  6  7  1  0  0  0  0
  7  8  2  0  0  0  0
  7 21  1  0  0  0  0
  8 22  1  0  0  0  0
  9 12  2  0  0  0  0
  9 23  1  0  0  0  0
 11 10  1  0  0  0  0
 11 13  1  0  0  0  0
 12  8  1  0  0  0  0
 12 14  1  0  0  0  0
 13  9  1  0  0  0  0
 14  5  1  0  0  0  0
 14 10  2  0  0  0  0
 15 24  1  0  0  0  0
 15 25  1  0  0  0  0
 16 26  1  0  0  0  0
 16 27  1  0  0  0  0
M  END
$$$$
